<?xml version="1.0" encoding="UTF-8"?>

<!-- generated on 2022-05-18 01:08:23 by Eclipse SUMO netedit Version 1.12.0
<configuration xmlns:xsi="http://www.w3.org/2001/XMLSchema-instance" xsi:noNamespaceSchemaLocation="http://sumo.dlr.de/xsd/netconvertConfiguration.xsd">

    <input>
        <sumo-net-file value="C:\Barney\Prog\2022_01_Onlab\SUMO\LongStraightHighway\LongStraightHighway.net.xml"/>
    </input>

    <output>
        <output-file value="C:\Barney\Prog\2022_01_Onlab\SUMO\LongStraightHighway\LongStraightHighway.net.xml"/>
    </output>

    <processing>
        <geometry.min-radius.fix.railways value="false"/>
        <geometry.max-grade.fix value="false"/>
        <offset.disable-normalization value="true"/>
        <lefthand value="false"/>
    </processing>

    <junctions>
        <no-turnarounds value="true"/>
        <junctions.corner-detail value="5"/>
        <junctions.limit-turn-speed value="5.5"/>
        <rectangular-lane-cut value="false"/>
    </junctions>

    <pedestrian>
        <walkingareas value="false"/>
    </pedestrian>

    <report>
        <aggregate-warnings value="5"/>
    </report>

</configuration>
-->

<net version="1.9" junctionCornerDetail="5" limitTurnSpeed="5.50" xmlns:xsi="http://www.w3.org/2001/XMLSchema-instance" xsi:noNamespaceSchemaLocation="http://sumo.dlr.de/xsd/net_file.xsd">

    <location netOffset="0.00,0.00" convBoundary="0.00,0.00,11000.00,11000.00" origBoundary="-10000000000.00,-10000000000.00,10000000000.00,10000000000.00" projParameter="!"/>

    <edge id=":Int1_0" function="internal">
        <lane id=":Int1_0_0" index="0" speed="41.66" length="0.10" shape="994.34,1005.66 994.34,1005.66"/>
        <lane id=":Int1_0_1" index="1" speed="41.66" length="0.10" shape="996.61,1003.39 996.61,1003.39"/>
        <lane id=":Int1_0_2" index="2" speed="41.66" length="0.10" shape="998.87,1001.13 998.87,1001.13"/>
    </edge>
    <edge id=":Int1_3" function="internal">
        <lane id=":Int1_3_0" index="0" speed="41.66" length="0.10" shape="1005.66,994.34 1005.66,994.34"/>
        <lane id=":Int1_3_1" index="1" speed="41.66" length="0.10" shape="1003.39,996.61 1003.39,996.61"/>
        <lane id=":Int1_3_2" index="2" speed="41.66" length="0.10" shape="1001.13,998.87 1001.13,998.87"/>
    </edge>
    <edge id=":Int10_0" function="internal">
        <lane id=":Int10_0_0" index="0" speed="41.66" length="0.10" shape="9994.34,10005.66 9994.34,10005.66"/>
        <lane id=":Int10_0_1" index="1" speed="41.66" length="0.10" shape="9996.61,10003.39 9996.61,10003.39"/>
        <lane id=":Int10_0_2" index="2" speed="41.66" length="0.10" shape="9998.87,10001.13 9998.87,10001.13"/>
    </edge>
    <edge id=":Int10_3" function="internal">
        <lane id=":Int10_3_0" index="0" speed="41.66" length="0.10" shape="10005.66,9994.34 10005.66,9994.34"/>
        <lane id=":Int10_3_1" index="1" speed="41.66" length="0.10" shape="10003.39,9996.61 10003.39,9996.61"/>
        <lane id=":Int10_3_2" index="2" speed="41.66" length="0.10" shape="10001.13,9998.87 10001.13,9998.87"/>
    </edge>
    <edge id=":Int2_0" function="internal">
        <lane id=":Int2_0_0" index="0" speed="41.66" length="0.10" shape="1994.34,2005.66 1994.34,2005.66"/>
        <lane id=":Int2_0_1" index="1" speed="41.66" length="0.10" shape="1996.61,2003.39 1996.61,2003.39"/>
        <lane id=":Int2_0_2" index="2" speed="41.66" length="0.10" shape="1998.87,2001.13 1998.87,2001.13"/>
    </edge>
    <edge id=":Int2_3" function="internal">
        <lane id=":Int2_3_0" index="0" speed="41.66" length="0.10" shape="2005.66,1994.34 2005.66,1994.34"/>
        <lane id=":Int2_3_1" index="1" speed="41.66" length="0.10" shape="2003.39,1996.61 2003.39,1996.61"/>
        <lane id=":Int2_3_2" index="2" speed="41.66" length="0.10" shape="2001.13,1998.87 2001.13,1998.87"/>
    </edge>
    <edge id=":Int3_0" function="internal">
        <lane id=":Int3_0_0" index="0" speed="41.66" length="0.10" shape="2994.34,3005.66 2994.34,3005.66"/>
        <lane id=":Int3_0_1" index="1" speed="41.66" length="0.10" shape="2996.61,3003.39 2996.61,3003.39"/>
        <lane id=":Int3_0_2" index="2" speed="41.66" length="0.10" shape="2998.87,3001.13 2998.87,3001.13"/>
    </edge>
    <edge id=":Int3_3" function="internal">
        <lane id=":Int3_3_0" index="0" speed="41.66" length="0.10" shape="3005.66,2994.34 3005.66,2994.34"/>
        <lane id=":Int3_3_1" index="1" speed="41.66" length="0.10" shape="3003.39,2996.61 3003.39,2996.61"/>
        <lane id=":Int3_3_2" index="2" speed="41.66" length="0.10" shape="3001.13,2998.87 3001.13,2998.87"/>
    </edge>
    <edge id=":Int4_0" function="internal">
        <lane id=":Int4_0_0" index="0" speed="41.66" length="0.10" shape="3994.34,4005.66 3994.34,4005.66"/>
        <lane id=":Int4_0_1" index="1" speed="41.66" length="0.10" shape="3996.61,4003.39 3996.61,4003.39"/>
        <lane id=":Int4_0_2" index="2" speed="41.66" length="0.10" shape="3998.87,4001.13 3998.87,4001.13"/>
    </edge>
    <edge id=":Int4_3" function="internal">
        <lane id=":Int4_3_0" index="0" speed="41.66" length="0.10" shape="4005.66,3994.34 4005.66,3994.34"/>
        <lane id=":Int4_3_1" index="1" speed="41.66" length="0.10" shape="4003.39,3996.61 4003.39,3996.61"/>
        <lane id=":Int4_3_2" index="2" speed="41.66" length="0.10" shape="4001.13,3998.87 4001.13,3998.87"/>
    </edge>
    <edge id=":Int5_0" function="internal">
        <lane id=":Int5_0_0" index="0" speed="41.66" length="0.10" shape="4994.34,5005.66 4994.34,5005.66"/>
        <lane id=":Int5_0_1" index="1" speed="41.66" length="0.10" shape="4996.61,5003.39 4996.61,5003.39"/>
        <lane id=":Int5_0_2" index="2" speed="41.66" length="0.10" shape="4998.87,5001.13 4998.87,5001.13"/>
    </edge>
    <edge id=":Int5_3" function="internal">
        <lane id=":Int5_3_0" index="0" speed="41.66" length="0.10" shape="5005.66,4994.34 5005.66,4994.34"/>
        <lane id=":Int5_3_1" index="1" speed="41.66" length="0.10" shape="5003.39,4996.61 5003.39,4996.61"/>
        <lane id=":Int5_3_2" index="2" speed="41.66" length="0.10" shape="5001.13,4998.87 5001.13,4998.87"/>
    </edge>
    <edge id=":Int6_0" function="internal">
        <lane id=":Int6_0_0" index="0" speed="41.66" length="0.10" shape="5994.34,6005.66 5994.34,6005.66"/>
        <lane id=":Int6_0_1" index="1" speed="41.66" length="0.10" shape="5996.61,6003.39 5996.61,6003.39"/>
        <lane id=":Int6_0_2" index="2" speed="41.66" length="0.10" shape="5998.87,6001.13 5998.87,6001.13"/>
    </edge>
    <edge id=":Int6_3" function="internal">
        <lane id=":Int6_3_0" index="0" speed="41.66" length="0.10" shape="6005.66,5994.34 6005.66,5994.34"/>
        <lane id=":Int6_3_1" index="1" speed="41.66" length="0.10" shape="6003.39,5996.61 6003.39,5996.61"/>
        <lane id=":Int6_3_2" index="2" speed="41.66" length="0.10" shape="6001.13,5998.87 6001.13,5998.87"/>
    </edge>
    <edge id=":Int7_0" function="internal">
        <lane id=":Int7_0_0" index="0" speed="41.66" length="0.10" shape="6994.34,7005.66 6994.34,7005.66"/>
        <lane id=":Int7_0_1" index="1" speed="41.66" length="0.10" shape="6996.61,7003.39 6996.61,7003.39"/>
        <lane id=":Int7_0_2" index="2" speed="41.66" length="0.10" shape="6998.87,7001.13 6998.87,7001.13"/>
    </edge>
    <edge id=":Int7_3" function="internal">
        <lane id=":Int7_3_0" index="0" speed="41.66" length="0.10" shape="7005.66,6994.34 7005.66,6994.34"/>
        <lane id=":Int7_3_1" index="1" speed="41.66" length="0.10" shape="7003.39,6996.61 7003.39,6996.61"/>
        <lane id=":Int7_3_2" index="2" speed="41.66" length="0.10" shape="7001.13,6998.87 7001.13,6998.87"/>
    </edge>
    <edge id=":Int8_0" function="internal">
        <lane id=":Int8_0_0" index="0" speed="41.66" length="0.10" shape="7994.34,8005.66 7994.34,8005.66"/>
        <lane id=":Int8_0_1" index="1" speed="41.66" length="0.10" shape="7996.61,8003.39 7996.61,8003.39"/>
        <lane id=":Int8_0_2" index="2" speed="41.66" length="0.10" shape="7998.87,8001.13 7998.87,8001.13"/>
    </edge>
    <edge id=":Int8_3" function="internal">
        <lane id=":Int8_3_0" index="0" speed="41.66" length="0.10" shape="8005.66,7994.34 8005.66,7994.34"/>
        <lane id=":Int8_3_1" index="1" speed="41.66" length="0.10" shape="8003.39,7996.61 8003.39,7996.61"/>
        <lane id=":Int8_3_2" index="2" speed="41.66" length="0.10" shape="8001.13,7998.87 8001.13,7998.87"/>
    </edge>
    <edge id=":Int9_0" function="internal">
        <lane id=":Int9_0_0" index="0" speed="41.66" length="0.10" shape="8994.34,9005.66 8994.34,9005.66"/>
        <lane id=":Int9_0_1" index="1" speed="41.66" length="0.10" shape="8996.61,9003.39 8996.61,9003.39"/>
        <lane id=":Int9_0_2" index="2" speed="41.66" length="0.10" shape="8998.87,9001.13 8998.87,9001.13"/>
    </edge>
    <edge id=":Int9_3" function="internal">
        <lane id=":Int9_3_0" index="0" speed="41.66" length="0.10" shape="9005.66,8994.34 9005.66,8994.34"/>
        <lane id=":Int9_3_1" index="1" speed="41.66" length="0.10" shape="9003.39,8996.61 9003.39,8996.61"/>
        <lane id=":Int9_3_2" index="2" speed="41.66" length="0.10" shape="9001.13,8998.87 9001.13,8998.87"/>
    </edge>

    <edge id="Left01" from="Int1" to="BottomStart" priority="-1">
        <lane id="Left01_0" index="0" speed="41.66" length="1414.21" shape="994.34,1005.66 -5.66,5.66"/>
        <lane id="Left01_1" index="1" speed="41.66" length="1414.21" shape="996.61,1003.39 -3.39,3.39"/>
        <lane id="Left01_2" index="2" speed="41.66" length="1414.21" shape="998.87,1001.13 -1.13,1.13"/>
    </edge>
    <edge id="Left1011" from="TopEnd" to="Int10" priority="-1">
        <lane id="Left1011_0" index="0" speed="41.66" length="1414.21" shape="10994.34,11005.66 9994.34,10005.66"/>
        <lane id="Left1011_1" index="1" speed="41.66" length="1414.21" shape="10996.61,11003.39 9996.61,10003.39"/>
        <lane id="Left1011_2" index="2" speed="41.66" length="1414.21" shape="10998.87,11001.13 9998.87,10001.13"/>
    </edge>
    <edge id="Left12" from="Int2" to="Int1" priority="-1">
        <lane id="Left12_0" index="0" speed="41.66" length="1414.21" shape="1994.34,2005.66 994.34,1005.66"/>
        <lane id="Left12_1" index="1" speed="41.66" length="1414.21" shape="1996.61,2003.39 996.61,1003.39"/>
        <lane id="Left12_2" index="2" speed="41.66" length="1414.21" shape="1998.87,2001.13 998.87,1001.13"/>
    </edge>
    <edge id="Left23" from="Int3" to="Int2" priority="-1">
        <lane id="Left23_0" index="0" speed="41.66" length="1414.21" shape="2994.34,3005.66 1994.34,2005.66"/>
        <lane id="Left23_1" index="1" speed="41.66" length="1414.21" shape="2996.61,3003.39 1996.61,2003.39"/>
        <lane id="Left23_2" index="2" speed="41.66" length="1414.21" shape="2998.87,3001.13 1998.87,2001.13"/>
    </edge>
    <edge id="Left34" from="Int4" to="Int3" priority="-1">
        <lane id="Left34_0" index="0" speed="41.66" length="1414.21" shape="3994.34,4005.66 2994.34,3005.66"/>
        <lane id="Left34_1" index="1" speed="41.66" length="1414.21" shape="3996.61,4003.39 2996.61,3003.39"/>
        <lane id="Left34_2" index="2" speed="41.66" length="1414.21" shape="3998.87,4001.13 2998.87,3001.13"/>
    </edge>
    <edge id="Left45" from="Int5" to="Int4" priority="-1">
        <lane id="Left45_0" index="0" speed="41.66" length="1414.21" shape="4994.34,5005.66 3994.34,4005.66"/>
        <lane id="Left45_1" index="1" speed="41.66" length="1414.21" shape="4996.61,5003.39 3996.61,4003.39"/>
        <lane id="Left45_2" index="2" speed="41.66" length="1414.21" shape="4998.87,5001.13 3998.87,4001.13"/>
    </edge>
    <edge id="Left56" from="Int6" to="Int5" priority="-1">
        <lane id="Left56_0" index="0" speed="41.66" length="1414.21" shape="5994.34,6005.66 4994.34,5005.66"/>
        <lane id="Left56_1" index="1" speed="41.66" length="1414.21" shape="5996.61,6003.39 4996.61,5003.39"/>
        <lane id="Left56_2" index="2" speed="41.66" length="1414.21" shape="5998.87,6001.13 4998.87,5001.13"/>
    </edge>
    <edge id="Left67" from="Int7" to="Int6" priority="-1">
        <lane id="Left67_0" index="0" speed="41.66" length="1414.21" shape="6994.34,7005.66 5994.34,6005.66"/>
        <lane id="Left67_1" index="1" speed="41.66" length="1414.21" shape="6996.61,7003.39 5996.61,6003.39"/>
        <lane id="Left67_2" index="2" speed="41.66" length="1414.21" shape="6998.87,7001.13 5998.87,6001.13"/>
    </edge>
    <edge id="Left78" from="Int8" to="Int7" priority="-1">
        <lane id="Left78_0" index="0" speed="41.66" length="1414.21" shape="7994.34,8005.66 6994.34,7005.66"/>
        <lane id="Left78_1" index="1" speed="41.66" length="1414.21" shape="7996.61,8003.39 6996.61,7003.39"/>
        <lane id="Left78_2" index="2" speed="41.66" length="1414.21" shape="7998.87,8001.13 6998.87,7001.13"/>
    </edge>
    <edge id="Left89" from="Int9" to="Int8" priority="-1">
        <lane id="Left89_0" index="0" speed="41.66" length="1414.21" shape="8994.34,9005.66 7994.34,8005.66"/>
        <lane id="Left89_1" index="1" speed="41.66" length="1414.21" shape="8996.61,9003.39 7996.61,8003.39"/>
        <lane id="Left89_2" index="2" speed="41.66" length="1414.21" shape="8998.87,9001.13 7998.87,8001.13"/>
    </edge>
    <edge id="Left910" from="Int10" to="Int9" priority="-1">
        <lane id="Left910_0" index="0" speed="41.66" length="1414.21" shape="9994.34,10005.66 8994.34,9005.66"/>
        <lane id="Left910_1" index="1" speed="41.66" length="1414.21" shape="9996.61,10003.39 8996.61,9003.39"/>
        <lane id="Left910_2" index="2" speed="41.66" length="1414.21" shape="9998.87,10001.13 8998.87,9001.13"/>
    </edge>
    <edge id="Right01" from="BottomStart" to="Int1" priority="-1">
        <lane id="Right01_0" index="0" speed="41.66" length="1414.21" shape="5.66,-5.66 1005.66,994.34"/>
        <lane id="Right01_1" index="1" speed="41.66" length="1414.21" shape="3.39,-3.39 1003.39,996.61"/>
        <lane id="Right01_2" index="2" speed="41.66" length="1414.21" shape="1.13,-1.13 1001.13,998.87"/>
    </edge>
    <edge id="Right1011" from="Int10" to="TopEnd" priority="-1" length="1414.21">
        <lane id="Right1011_0" index="0" speed="41.66" length="1414.21" shape="10005.66,9994.34 11005.66,10994.34"/>
        <lane id="Right1011_1" index="1" speed="41.66" length="1414.21" shape="10003.39,9996.61 11003.39,10996.61"/>
        <lane id="Right1011_2" index="2" speed="41.66" length="1414.21" shape="10001.13,9998.87 11001.13,10998.87"/>
    </edge>
    <edge id="Right12" from="Int1" to="Int2" priority="-1">
        <lane id="Right12_0" index="0" speed="41.66" length="1414.21" shape="1005.66,994.34 2005.66,1994.34"/>
        <lane id="Right12_1" index="1" speed="41.66" length="1414.21" shape="1003.39,996.61 2003.39,1996.61"/>
        <lane id="Right12_2" index="2" speed="41.66" length="1414.21" shape="1001.13,998.87 2001.13,1998.87"/>
    </edge>
    <edge id="Right23" from="Int2" to="Int3" priority="-1">
        <lane id="Right23_0" index="0" speed="41.66" length="1414.21" shape="2005.66,1994.34 3005.66,2994.34"/>
        <lane id="Right23_1" index="1" speed="41.66" length="1414.21" shape="2003.39,1996.61 3003.39,2996.61"/>
        <lane id="Right23_2" index="2" speed="41.66" length="1414.21" shape="2001.13,1998.87 3001.13,2998.87"/>
    </edge>
    <edge id="Right34" from="Int3" to="Int4" priority="-1">
        <lane id="Right34_0" index="0" speed="41.66" length="1414.21" shape="3005.66,2994.34 4005.66,3994.34"/>
        <lane id="Right34_1" index="1" speed="41.66" length="1414.21" shape="3003.39,2996.61 4003.39,3996.61"/>
        <lane id="Right34_2" index="2" speed="41.66" length="1414.21" shape="3001.13,2998.87 4001.13,3998.87"/>
    </edge>
    <edge id="Right45" from="Int4" to="Int5" priority="-1">
        <lane id="Right45_0" index="0" speed="41.66" length="1414.21" shape="4005.66,3994.34 5005.66,4994.34"/>
        <lane id="Right45_1" index="1" speed="41.66" length="1414.21" shape="4003.39,3996.61 5003.39,4996.61"/>
        <lane id="Right45_2" index="2" speed="41.66" length="1414.21" shape="4001.13,3998.87 5001.13,4998.87"/>
    </edge>
    <edge id="Right56" from="Int5" to="Int6" priority="-1">
        <lane id="Right56_0" index="0" speed="41.66" length="1414.21" shape="5005.66,4994.34 6005.66,5994.34"/>
        <lane id="Right56_1" index="1" speed="41.66" length="1414.21" shape="5003.39,4996.61 6003.39,5996.61"/>
        <lane id="Right56_2" index="2" speed="41.66" length="1414.21" shape="5001.13,4998.87 6001.13,5998.87"/>
    </edge>
    <edge id="Right67" from="Int6" to="Int7" priority="-1">
        <lane id="Right67_0" index="0" speed="41.66" length="1414.21" shape="6005.66,5994.34 7005.66,6994.34"/>
        <lane id="Right67_1" index="1" speed="41.66" length="1414.21" shape="6003.39,5996.61 7003.39,6996.61"/>
        <lane id="Right67_2" index="2" speed="41.66" length="1414.21" shape="6001.13,5998.87 7001.13,6998.87"/>
    </edge>
    <edge id="Right78" from="Int7" to="Int8" priority="-1">
        <lane id="Right78_0" index="0" speed="41.66" length="1414.21" shape="7005.66,6994.34 8005.66,7994.34"/>
        <lane id="Right78_1" index="1" speed="41.66" length="1414.21" shape="7003.39,6996.61 8003.39,7996.61"/>
        <lane id="Right78_2" index="2" speed="41.66" length="1414.21" shape="7001.13,6998.87 8001.13,7998.87"/>
    </edge>
    <edge id="Right89" from="Int8" to="Int9" priority="-1">
        <lane id="Right89_0" index="0" speed="41.66" length="1414.21" shape="8005.66,7994.34 9005.66,8994.34"/>
        <lane id="Right89_1" index="1" speed="41.66" length="1414.21" shape="8003.39,7996.61 9003.39,8996.61"/>
        <lane id="Right89_2" index="2" speed="41.66" length="1414.21" shape="8001.13,7998.87 9001.13,8998.87"/>
    </edge>
    <edge id="Right910" from="Int9" to="Int10" priority="-1">
        <lane id="Right910_0" index="0" speed="41.66" length="1414.21" shape="9005.66,8994.34 10005.66,9994.34"/>
        <lane id="Right910_1" index="1" speed="41.66" length="1414.21" shape="9003.39,8996.61 10003.39,9996.61"/>
        <lane id="Right910_2" index="2" speed="41.66" length="1414.21" shape="9001.13,8998.87 10001.13,9998.87"/>
    </edge>

    <junction id="BottomStart" type="dead_end" x="0.00" y="0.00" incLanes="Left01_0 Left01_1 Left01_2" intLanes="" shape="0.00,0.00 -6.79,6.79 0.00,0.00"/>
    <junction id="Int1" type="priority" x="1000.00" y="1000.00" incLanes="Left12_0 Left12_1 Left12_2 Right01_0 Right01_1 Right01_2" intLanes=":Int1_0_0 :Int1_0_1 :Int1_0_2 :Int1_3_0 :Int1_3_1 :Int1_3_2" shape="993.21,1006.79 1006.79,993.21 993.21,1006.79">
        <request index="0" response="000000" foes="000000" cont="0"/>
        <request index="1" response="000000" foes="000000" cont="0"/>
        <request index="2" response="000000" foes="000000" cont="0"/>
        <request index="3" response="000000" foes="000000" cont="0"/>
        <request index="4" response="000000" foes="000000" cont="0"/>
        <request index="5" response="000000" foes="000000" cont="0"/>
    </junction>
    <junction id="Int10" type="priority" x="10000.00" y="10000.00" incLanes="Left1011_0 Left1011_1 Left1011_2 Right910_0 Right910_1 Right910_2" intLanes=":Int10_0_0 :Int10_0_1 :Int10_0_2 :Int10_3_0 :Int10_3_1 :Int10_3_2" shape="9993.21,10006.79 10006.79,9993.21 9993.21,10006.79">
        <request index="0" response="000000" foes="000000" cont="0"/>
        <request index="1" response="000000" foes="000000" cont="0"/>
        <request index="2" response="000000" foes="000000" cont="0"/>
        <request index="3" response="000000" foes="000000" cont="0"/>
        <request index="4" response="000000" foes="000000" cont="0"/>
        <request index="5" response="000000" foes="000000" cont="0"/>
    </junction>
    <junction id="Int2" type="priority" x="2000.00" y="2000.00" incLanes="Left23_0 Left23_1 Left23_2 Right12_0 Right12_1 Right12_2" intLanes=":Int2_0_0 :Int2_0_1 :Int2_0_2 :Int2_3_0 :Int2_3_1 :Int2_3_2" shape="1993.21,2006.79 2006.79,1993.21 1993.21,2006.79">
        <request index="0" response="000000" foes="000000" cont="0"/>
        <request index="1" response="000000" foes="000000" cont="0"/>
        <request index="2" response="000000" foes="000000" cont="0"/>
        <request index="3" response="000000" foes="000000" cont="0"/>
        <request index="4" response="000000" foes="000000" cont="0"/>
        <request index="5" response="000000" foes="000000" cont="0"/>
    </junction>
    <junction id="Int3" type="priority" x="3000.00" y="3000.00" incLanes="Left34_0 Left34_1 Left34_2 Right23_0 Right23_1 Right23_2" intLanes=":Int3_0_0 :Int3_0_1 :Int3_0_2 :Int3_3_0 :Int3_3_1 :Int3_3_2" shape="2993.21,3006.79 3006.79,2993.21 2993.21,3006.79">
        <request index="0" response="000000" foes="000000" cont="0"/>
        <request index="1" response="000000" foes="000000" cont="0"/>
        <request index="2" response="000000" foes="000000" cont="0"/>
        <request index="3" response="000000" foes="000000" cont="0"/>
        <request index="4" response="000000" foes="000000" cont="0"/>
        <request index="5" response="000000" foes="000000" cont="0"/>
    </junction>
    <junction id="Int4" type="priority" x="4000.00" y="4000.00" incLanes="Left45_0 Left45_1 Left45_2 Right34_0 Right34_1 Right34_2" intLanes=":Int4_0_0 :Int4_0_1 :Int4_0_2 :Int4_3_0 :Int4_3_1 :Int4_3_2" shape="3993.21,4006.79 4006.79,3993.21 3993.21,4006.79">
        <request index="0" response="000000" foes="000000" cont="0"/>
        <request index="1" response="000000" foes="000000" cont="0"/>
        <request index="2" response="000000" foes="000000" cont="0"/>
        <request index="3" response="000000" foes="000000" cont="0"/>
        <request index="4" response="000000" foes="000000" cont="0"/>
        <request index="5" response="000000" foes="000000" cont="0"/>
    </junction>
    <junction id="Int5" type="priority" x="5000.00" y="5000.00" incLanes="Left56_0 Left56_1 Left56_2 Right45_0 Right45_1 Right45_2" intLanes=":Int5_0_0 :Int5_0_1 :Int5_0_2 :Int5_3_0 :Int5_3_1 :Int5_3_2" shape="4993.21,5006.79 5006.79,4993.21 4993.21,5006.79">
        <request index="0" response="000000" foes="000000" cont="0"/>
        <request index="1" response="000000" foes="000000" cont="0"/>
        <request index="2" response="000000" foes="000000" cont="0"/>
        <request index="3" response="000000" foes="000000" cont="0"/>
        <request index="4" response="000000" foes="000000" cont="0"/>
        <request index="5" response="000000" foes="000000" cont="0"/>
    </junction>
    <junction id="Int6" type="priority" x="6000.00" y="6000.00" incLanes="Left67_0 Left67_1 Left67_2 Right56_0 Right56_1 Right56_2" intLanes=":Int6_0_0 :Int6_0_1 :Int6_0_2 :Int6_3_0 :Int6_3_1 :Int6_3_2" shape="5993.21,6006.79 6006.79,5993.21 5993.21,6006.79">
        <request index="0" response="000000" foes="000000" cont="0"/>
        <request index="1" response="000000" foes="000000" cont="0"/>
        <request index="2" response="000000" foes="000000" cont="0"/>
        <request index="3" response="000000" foes="000000" cont="0"/>
        <request index="4" response="000000" foes="000000" cont="0"/>
        <request index="5" response="000000" foes="000000" cont="0"/>
    </junction>
    <junction id="Int7" type="priority" x="7000.00" y="7000.00" incLanes="Left78_0 Left78_1 Left78_2 Right67_0 Right67_1 Right67_2" intLanes=":Int7_0_0 :Int7_0_1 :Int7_0_2 :Int7_3_0 :Int7_3_1 :Int7_3_2" shape="6993.21,7006.79 7006.79,6993.21 6993.21,7006.79">
        <request index="0" response="000000" foes="000000" cont="0"/>
        <request index="1" response="000000" foes="000000" cont="0"/>
        <request index="2" response="000000" foes="000000" cont="0"/>
        <request index="3" response="000000" foes="000000" cont="0"/>
        <request index="4" response="000000" foes="000000" cont="0"/>
        <request index="5" response="000000" foes="000000" cont="0"/>
    </junction>
    <junction id="Int8" type="priority" x="8000.00" y="8000.00" incLanes="Left89_0 Left89_1 Left89_2 Right78_0 Right78_1 Right78_2" intLanes=":Int8_0_0 :Int8_0_1 :Int8_0_2 :Int8_3_0 :Int8_3_1 :Int8_3_2" shape="7993.21,8006.79 8006.79,7993.21 7993.21,8006.79">
        <request index="0" response="000000" foes="000000" cont="0"/>
        <request index="1" response="000000" foes="000000" cont="0"/>
        <request index="2" response="000000" foes="000000" cont="0"/>
        <request index="3" response="000000" foes="000000" cont="0"/>
        <request index="4" response="000000" foes="000000" cont="0"/>
        <request index="5" response="000000" foes="000000" cont="0"/>
    </junction>
    <junction id="Int9" type="priority" x="9000.00" y="9000.00" incLanes="Left910_0 Left910_1 Left910_2 Right89_0 Right89_1 Right89_2" intLanes=":Int9_0_0 :Int9_0_1 :Int9_0_2 :Int9_3_0 :Int9_3_1 :Int9_3_2" shape="8993.21,9006.79 9006.79,8993.21 8993.21,9006.79">
        <request index="0" response="000000" foes="000000" cont="0"/>
        <request index="1" response="000000" foes="000000" cont="0"/>
        <request index="2" response="000000" foes="000000" cont="0"/>
        <request index="3" response="000000" foes="000000" cont="0"/>
        <request index="4" response="000000" foes="000000" cont="0"/>
        <request index="5" response="000000" foes="000000" cont="0"/>
    </junction>
    <junction id="TopEnd" type="dead_end" x="11000.00" y="11000.00" incLanes="Right1011_0 Right1011_1 Right1011_2" intLanes="" shape="11000.00,11000.00 11006.79,10993.21 11000.00,11000.00"/>

    <connection from="Left1011" to="Left910" fromLane="0" toLane="0" via=":Int10_0_0" dir="s" state="M"/>
    <connection from="Left1011" to="Left910" fromLane="1" toLane="1" via=":Int10_0_1" dir="s" state="M"/>
    <connection from="Left1011" to="Left910" fromLane="2" toLane="2" via=":Int10_0_2" dir="s" state="M"/>
    <connection from="Left12" to="Left01" fromLane="0" toLane="0" via=":Int1_0_0" dir="s" state="M"/>
    <connection from="Left12" to="Left01" fromLane="1" toLane="1" via=":Int1_0_1" dir="s" state="M"/>
    <connection from="Left12" to="Left01" fromLane="2" toLane="2" via=":Int1_0_2" dir="s" state="M"/>
    <connection from="Left23" to="Left12" fromLane="0" toLane="0" via=":Int2_0_0" dir="s" state="M"/>
    <connection from="Left23" to="Left12" fromLane="1" toLane="1" via=":Int2_0_1" dir="s" state="M"/>
    <connection from="Left23" to="Left12" fromLane="2" toLane="2" via=":Int2_0_2" dir="s" state="M"/>
    <connection from="Left34" to="Left23" fromLane="0" toLane="0" via=":Int3_0_0" dir="s" state="M"/>
    <connection from="Left34" to="Left23" fromLane="1" toLane="1" via=":Int3_0_1" dir="s" state="M"/>
    <connection from="Left34" to="Left23" fromLane="2" toLane="2" via=":Int3_0_2" dir="s" state="M"/>
    <connection from="Left45" to="Left34" fromLane="0" toLane="0" via=":Int4_0_0" dir="s" state="M"/>
    <connection from="Left45" to="Left34" fromLane="1" toLane="1" via=":Int4_0_1" dir="s" state="M"/>
    <connection from="Left45" to="Left34" fromLane="2" toLane="2" via=":Int4_0_2" dir="s" state="M"/>
    <connection from="Left56" to="Left45" fromLane="0" toLane="0" via=":Int5_0_0" dir="s" state="M"/>
    <connection from="Left56" to="Left45" fromLane="1" toLane="1" via=":Int5_0_1" dir="s" state="M"/>
    <connection from="Left56" to="Left45" fromLane="2" toLane="2" via=":Int5_0_2" dir="s" state="M"/>
    <connection from="Left67" to="Left56" fromLane="0" toLane="0" via=":Int6_0_0" dir="s" state="M"/>
    <connection from="Left67" to="Left56" fromLane="1" toLane="1" via=":Int6_0_1" dir="s" state="M"/>
    <connection from="Left67" to="Left56" fromLane="2" toLane="2" via=":Int6_0_2" dir="s" state="M"/>
    <connection from="Left78" to="Left67" fromLane="0" toLane="0" via=":Int7_0_0" dir="s" state="M"/>
    <connection from="Left78" to="Left67" fromLane="1" toLane="1" via=":Int7_0_1" dir="s" state="M"/>
    <connection from="Left78" to="Left67" fromLane="2" toLane="2" via=":Int7_0_2" dir="s" state="M"/>
    <connection from="Left89" to="Left78" fromLane="0" toLane="0" via=":Int8_0_0" dir="s" state="M"/>
    <connection from="Left89" to="Left78" fromLane="1" toLane="1" via=":Int8_0_1" dir="s" state="M"/>
    <connection from="Left89" to="Left78" fromLane="2" toLane="2" via=":Int8_0_2" dir="s" state="M"/>
    <connection from="Left910" to="Left89" fromLane="0" toLane="0" via=":Int9_0_0" dir="s" state="M"/>
    <connection from="Left910" to="Left89" fromLane="1" toLane="1" via=":Int9_0_1" dir="s" state="M"/>
    <connection from="Left910" to="Left89" fromLane="2" toLane="2" via=":Int9_0_2" dir="s" state="M"/>
    <connection from="Right01" to="Right12" fromLane="0" toLane="0" via=":Int1_3_0" dir="s" state="M"/>
    <connection from="Right01" to="Right12" fromLane="1" toLane="1" via=":Int1_3_1" dir="s" state="M"/>
    <connection from="Right01" to="Right12" fromLane="2" toLane="2" via=":Int1_3_2" dir="s" state="M"/>
    <connection from="Right12" to="Right23" fromLane="0" toLane="0" via=":Int2_3_0" dir="s" state="M"/>
    <connection from="Right12" to="Right23" fromLane="1" toLane="1" via=":Int2_3_1" dir="s" state="M"/>
    <connection from="Right12" to="Right23" fromLane="2" toLane="2" via=":Int2_3_2" dir="s" state="M"/>
    <connection from="Right23" to="Right34" fromLane="0" toLane="0" via=":Int3_3_0" dir="s" state="M"/>
    <connection from="Right23" to="Right34" fromLane="1" toLane="1" via=":Int3_3_1" dir="s" state="M"/>
    <connection from="Right23" to="Right34" fromLane="2" toLane="2" via=":Int3_3_2" dir="s" state="M"/>
    <connection from="Right34" to="Right45" fromLane="0" toLane="0" via=":Int4_3_0" dir="s" state="M"/>
    <connection from="Right34" to="Right45" fromLane="1" toLane="1" via=":Int4_3_1" dir="s" state="M"/>
    <connection from="Right34" to="Right45" fromLane="2" toLane="2" via=":Int4_3_2" dir="s" state="M"/>
    <connection from="Right45" to="Right56" fromLane="0" toLane="0" via=":Int5_3_0" dir="s" state="M"/>